/*--------------------------------*- C++ -*----------------------------------*\
| =========                 |                                                 |
| \\      /  F ield         | OpenFOAM: The Open Source CFD Toolbox           |
|  \\    /   O peration     | Version:  v2406                                 |
|   \\  /    A nd           | Website:  www.openfoam.com                      |
|    \\/     M anipulation  |                                                 |
\*---------------------------------------------------------------------------*/
FoamFile
{
    version     2.0;
    format      ascii;
    class       dictionary;
    object      transportProperties;
}
// * * * * * * * * * * * * * * * * * * * * * * * * * * * * * * * * * * * * * //

transportModel Newtonian;

// Laminar viscosity
nu              [0 2 -1 0 0 0 0] 1e-06;

// Thermal expansion coefficient
beta            [0 0 0 -1 0 0 0] 6.9e-05;

// Reference temperature
TRef            [0 0 0 1 0 0 0] 300;

// Laminar Prandtl number
Pr              [0 0 0 0 0 0 0] 6;

// Turbulent Prandtl number
Prt             [0 0 0 0 0 0 0] 0.85;


// ************************************************************************* //
